{
  "completed_at": "20201018T181159Z",
  "completed_status": "Success",
  "created_at": "2020-10-18 13:11:43 -0500",
  "current_step": 1,
  "description": "Autogenerated 0",
  "eplusout_err": "Program Version,EnergyPlus, Version 9.2.0-921312fa1d, YMD=2020.10.18 13:11,\n   ************* Beginning Zone Sizing Calculations\n   ** Warning ** ProcessScheduleInput: Schedule:Constant=\"ALWAYS OFF DISCRETE\", Blank Schedule Type Limits Name input -- will not be validated.\n   ** Warning ** ProcessScheduleInput: Schedule:Constant=\"ALWAYS ON CONTINUOUS\", Blank Schedule Type Limits Name input -- will not be validated.\n   ** Warning ** CheckUsedConstructions: There are 14 nominally unused constructions in input.\n   **   ~~~   ** For explicit details on each unused construction, use Output:Diagnostics,DisplayExtraWarnings;\n   ** Warning ** ManageSizing: For a plant sizing run, there must be at least 1 Sizing:Plant object input. SimulationControl Plant Sizing option ignored.\n   ** Warning ** Output:Meter: invalid Key Name=\"GAS:FACILITY\" - not found.\n   ** Warning ** Output:Meter:MeterFileOnly: invalid Key Name=\"GAS:FACILITY\" - not found.\n   ** Warning ** Output:Meter:MeterFileOnly requested for \"Electricity:Facility\" (TimeStep), already on \"Output:Meter\". Will report to both eplusout.eso and eplusout.mtr\n   ************* Testing Individual Branch Integrity\n   ************* All Branches passed integrity testing\n   ************* Testing Individual Supply Air Path Integrity\n   ************* All Supply Air Paths passed integrity testing\n   ************* Testing Individual Return Air Path Integrity\n   ************* All Return Air Paths passed integrity testing\n   ************* No node connection errors were found.\n   ************* Beginning Simulation\n   ** Warning ** Processing Monthly Tabular Reports: Variable names not valid for this simulation\n   **   ~~~   ** ...use Output:Diagnostics,DisplayExtraWarnings; to show more details on individual variables.\n   ** Warning ** The resource referenced by LifeCycleCost:UsePriceEscalation= \"U.S. AVG  COMMERCIAL-ELECTRICITY\" has no energy cost. \n   **   ~~~   ** ... It is likely that the wrong resource is used. The resource should match the meter used in Utility:Tariff.\n   ** Warning ** The resource referenced by LifeCycleCost:UsePriceEscalation= \"U.S. AVG  COMMERCIAL-DISTILLATE OIL\" has no energy cost. \n   **   ~~~   ** ... It is likely that the wrong resource is used. The resource should match the meter used in Utility:Tariff.\n   ** Warning ** The resource referenced by LifeCycleCost:UsePriceEscalation= \"U.S. AVG  COMMERCIAL-RESIDUAL OIL\" has no energy cost. \n   **   ~~~   ** ... It is likely that the wrong resource is used. The resource should match the meter used in Utility:Tariff.\n   ** Warning ** The resource referenced by LifeCycleCost:UsePriceEscalation= \"U.S. AVG  COMMERCIAL-NATURAL GAS\" has no energy cost. \n   **   ~~~   ** ... It is likely that the wrong resource is used. The resource should match the meter used in Utility:Tariff.\n   ** Warning ** The resource referenced by LifeCycleCost:UsePriceEscalation= \"U.S. AVG  COMMERCIAL-COAL\" has no energy cost. \n   **   ~~~   ** ... It is likely that the wrong resource is used. The resource should match the meter used in Utility:Tariff.\n   ************* Simulation Error Summary *************\n   ************* There are 6 unused schedules in input.\n   ************* There are 6 unused week schedules in input.\n   ************* There are 12 unused day schedules in input.\n   ************* Use Output:Diagnostics,DisplayUnusedSchedules; to see them.\n   *************\n   ************* ===== Final Error Summary =====\n   ************* The following error categories occurred.  Consider correcting or noting.\n   ************* Nominally Unused Constructions\n   ************* ..The nominally unused constructions warning is provided to alert you to potential conditions that can cause\n   ************* ..extra time during simulation. Each construction is calculated by the algorithm indicated in the HeatBalanceAlgorithm\n   ************* ..object. You may remove the constructions indicated (when you use the DisplayExtraWarnings option).\n   *************\n   ************* EnergyPlus Warmup Error Summary. During Warmup: 0 Warning; 0 Severe Errors.\n   ************* EnergyPlus Sizing Error Summary. During Sizing: 4 Warning; 0 Severe Errors.\n   ************* EnergyPlus Completed Successfully-- 13 Warning; 0 Severe Errors; Elapsed Time=00hr 00min 11.38sec\n",
  "file_format_version": "0.0.1",
  "file_paths": [
    "/Users/kingsleyenweye/Desktop/GRADUATE SCHOOL SEMESTERS/Fall 2020/ARC 327R - ENERGY MODELING & THE DESIGN PROCESS/farnsworth_project/parametric_analysis/test_wwr_custom/temp_data/analysis_8306da2c-d901-4853-82d9-ed300f1ff4b0/data_point_2acdbb2c-7a1f-4d67-ad8f-6f99980396fc/generated_files",
    "../weather",
    "../seeds",
    "../seed",
    "./files",
    "./weather",
    "../../files",
    "../../weather",
    "./"
  ],
  "hash": "DBCC3A3E",
  "measure_paths": [
    "../measures"
  ],
  "name": "20% WWR Alternative",
  "osa_id": "8306da2c-d901-4853-82d9-ed300f1ff4b0",
  "osd_id": "2acdbb2c-7a1f-4d67-ad8f-6f99980396fc",
  "run_directory": "./run",
  "seed_file": "retrofit_baseline.osm",
  "started_at": "20201018T181146Z",
  "steps": [
    {
      "arguments": {
        "check_outdoors": true,
        "check_sunexposed": true,
        "check_wall": true,
        "wwr": 0.2
      },
      "description": "Option 1 Description: This measure aims to resize all of the existing windows in order to produce a specified, user-input, window to wall ratio.\nThe windows will be resized around their centroid.\nIt should be noted that this measure should work in all cases when DOWNSIZING the windows (which is often the need given the 40% WWR imposed as baseline by ASHRAE Appendix G).\nIf you aim to increase the area, please note that this could result in subsurfaces being larger than their parent surface",
      "measure_dir_name": "resize_existing_windows_to_match_a_given_wwr_custom",
      "name": "20% WWR Option",
      "result": {
        "completed_at": "20201018T181146Z",
        "measure_class_name": "ResizeExistingWindowsToMatchAGivenWwrCustom",
        "measure_display_name": "Resize existing windows to match a given WWR Custom",
        "measure_name": "resize_existing_windows_to_match_a_given_wwr_custom",
        "measure_taxonomy": "Envelope.Fenestration",
        "measure_type": "ModelMeasure",
        "measure_uid": "2a43dd50-7172-4c2d-8c93-2ad162e2630e",
        "measure_version_id": "5c2eab0f-aea2-45ed-b2f0-1753b12c1d90",
        "measure_version_modified": "20201018T181123Z",
        "measure_xml_checksum": "DF9C5490",
        "started_at": "20201018T181146Z",
        "stderr": "",
        "stdout": "[OpenStudio.Measure] <0> OSArgumentVector is deprecated, use OpenStudio::Measure::OSArgumentVector instead.\n[openstudio.model.PlanarSurface] <-2> Before setVertices have 23 fields.\n[openstudio.model.PlanarSurface] <-2> After clearExtensibleGroups in setVertices have 11 fields.\n[openstudio.model.PlanarSurface] <-2> After setVertices have 23 fields.  Size of vertices is 4.\n[openstudio.model.PlanarSurface] <-2> Before setVertices have 23 fields.\n[openstudio.model.PlanarSurface] <-2> After clearExtensibleGroups in setVertices have 11 fields.\n[openstudio.model.PlanarSurface] <-2> After setVertices have 23 fields.  Size of vertices is 4.\n[openstudio.model.PlanarSurface] <-2> Before setVertices have 23 fields.\n[openstudio.model.PlanarSurface] <-2> After clearExtensibleGroups in setVertices have 11 fields.\n[openstudio.model.PlanarSurface] <-2> After setVertices have 23 fields.  Size of vertices is 4.\n[openstudio.model.PlanarSurface] <-2> Before setVertices have 23 fields.\n[openstudio.model.PlanarSurface] <-2> After clearExtensibleGroups in setVertices have 11 fields.\n[openstudio.model.PlanarSurface] <-2> After setVertices have 23 fields.  Size of vertices is 4.\n[openstudio.model.PlanarSurface] <-2> Before setVertices have 23 fields.\n[openstudio.model.PlanarSurface] <-2> After clearExtensibleGroups in setVertices have 11 fields.\n[openstudio.model.PlanarSurface] <-2> After setVertices have 23 fields.  Size of vertices is 4.\n[openstudio.model.PlanarSurface] <-2> Before setVertices have 23 fields.\n[openstudio.model.PlanarSurface] <-2> After clearExtensibleGroups in setVertices have 11 fields.\n[openstudio.model.PlanarSurface] <-2> After setVertices have 23 fields.  Size of vertices is 4.\n[openstudio.model.PlanarSurface] <-2> Before setVertices have 23 fields.\n[openstudio.model.PlanarSurface] <-2> After clearExtensibleGroups in setVertices have 11 fields.\n[openstudio.model.PlanarSurface] <-2> After setVertices have 23 fields.  Size of vertices is 4.\n[openstudio.model.PlanarSurface] <-2> Before setVertices have 23 fields.\n[openstudio.model.PlanarSurface] <-2> After clearExtensibleGroups in setVertices have 11 fields.\n[openstudio.model.PlanarSurface] <-2> After setVertices have 23 fields.  Size of vertices is 4.\n[openstudio.model.PlanarSurface] <-2> Before setVertices have 23 fields.\n[openstudio.model.PlanarSurface] <-2> After clearExtensibleGroups in setVertices have 11 fields.\n[openstudio.model.PlanarSurface] <-2> After setVertices have 23 fields.  Size of vertices is 4.\n[openstudio.model.PlanarSurface] <-2> Before setVertices have 23 fields.\n[openstudio.model.PlanarSurface] <-2> After clearExtensibleGroups in setVertices have 11 fields.\n[openstudio.model.PlanarSurface] <-2> After setVertices have 23 fields.  Size of vertices is 4.\n[openstudio.model.PlanarSurface] <-2> Before setVertices have 23 fields.\n[openstudio.model.PlanarSurface] <-2> After clearExtensibleGroups in setVertices have 11 fields.\n[openstudio.model.PlanarSurface] <-2> After setVertices have 23 fields.  Size of vertices is 4.\n[openstudio.model.PlanarSurface] <-2> Before setVertices have 23 fields.\n[openstudio.model.PlanarSurface] <-2> After clearExtensibleGroups in setVertices have 11 fields.\n[openstudio.model.PlanarSurface] <-2> After setVertices have 23 fields.  Size of vertices is 4.\n",
        "step_errors": [],
        "step_files": [],
        "step_final_condition": "Checking final WWR 36.31%. 12 surfaces were resized",
        "step_info": [
          "Click on 'Advanced' for a CSV of each surface WWR before and after"
        ],
        "step_initial_condition": "The initial WWR was 65.92%.",
        "step_result": "Success",
        "step_values": [
          {
            "name": "wwr",
            "value": 0.2
          },
          {
            "name": "check_wall",
            "value": true
          },
          {
            "name": "check_outdoors",
            "value": true
          },
          {
            "name": "check_sunexposed",
            "value": true
          }
        ],
        "step_warnings": []
      }
    }
  ],
  "updated_at": "20201018T181159Z",
  "weather_file": "USA_IL_Chicago-Midway.AP.725340_TMY3.epw"
}